29
Nice; E=-45.343607 a.u.; E(rel.)=0.000000 kcal/mol
 C   -2.69412208    0.37871708   -1.22998474
 C   -2.16488674    0.53395176    0.18881014
 H   -2.74600223    1.34990373   -1.71150496
 H   -3.68542459   -0.06061025   -1.19100541
 H   -2.04604516   -0.27475798   -1.80784189
 C   -3.08348136    1.36655805    1.07506689
 H   -4.02236328    0.83762473    1.21203934
 H   -3.27888548    2.32636667    0.60872764
 H   -2.61727286    1.53994248    2.04292153
 O   -1.94330486   -0.75267394    0.71926939
 O   -0.93796789    1.26673599    0.23246066
 O   -0.00155916    0.79009516   -0.74118716
 C    1.22833210    0.63861524   -0.31910577
 C    1.74691628    1.43293837    0.83366784
 H    2.75162783    1.12406820    1.10063137
 H    1.08936577    1.34935721    1.69525980
 H    1.76618762    2.48035801    0.53296408
 C    2.14099264    0.38983186   -1.48374537
 H    1.69666540   -0.33063088   -2.16719871
 H    3.11395537    0.04306960   -1.14970204
 H    2.27026781    1.32722523   -2.02213879
 H   -1.99433840   -0.73394052    1.68393371
 O    1.16414340   -0.99115569    0.50087411
 O    0.34013103   -1.85442987   -0.24179171
 H   -0.58612078   -1.60957579    0.03063087
 H    2.09582647   -1.45480680    0.41328685
 O    3.43433091   -2.17469678    0.23831491
 H    3.39416330   -2.89538882   -0.39971646
 H    3.84506163   -2.52165022    1.03660266
29
Nice; E=-45.342137 a.u.; E(rel.)=0.922702 kcal/mol
 C   -2.80492364    0.64326919   -1.26185998
 C   -2.20059300    0.55185674    0.13623162
 H   -2.85978741    1.68351408   -1.56782227
 H   -3.80609512    0.22233976   -1.26171118
 H   -2.19166426    0.09599105   -1.97391129
 C   -3.03296808    1.28868286    1.18480186
 H   -4.04424306    0.89293294    1.19588113
 H   -3.06729584    2.34660182    0.94678739
 H   -2.58400717    1.16072625    2.16618279
 O   -1.98512676   -0.80703000    0.50778702
 O   -0.95060611    1.18993365    0.22599660
 O   -0.02512190    0.69339667   -0.75537228
 C    1.21750199    0.60471685   -0.34490765
 C    1.71856164    1.48645955    0.75130715
 H    1.08667187    1.40450807    1.63223942
 H    1.66782359    2.51716598    0.40165039
 H    2.74577326    1.24873681    1.00488985
 C    2.12229091    0.32495918   -1.50965754
 H    3.11191584    0.03324588   -1.17184691
 H    2.20944702    1.23443064   -2.10148016
 H    1.69699617   -0.44984558   -2.14397574
 H   -2.83217766   -1.24983857    0.62103473
 O    1.22143729   -0.96380362    0.56531022
 O    0.42433495   -1.89758089   -0.11538437
 H   -0.50767298   -1.62995638    0.09933599
 H    2.16922672   -1.40027703    0.50764101
 O    3.53516852   -2.07761505    0.39245639
 H    3.95487454   -2.32274382    1.22324803
 H    3.52236418   -2.86299735   -0.16521057
29
Nice; E=-45.341386 a.u.; E(rel.)=1.393661 kcal/mol
 C   -2.83860657    0.87142371   -1.27552474
 C   -2.19792821    0.53082702    0.06530523
 H   -2.85686717    1.94900761   -1.40732630
 H   -3.85704541    0.49529162   -1.30829845
 H   -2.26804682    0.42494703   -2.08659085
 C   -2.98142376    1.09359888    1.25176280
 H   -3.02508181    2.17515747    1.18155981
 H   -2.49193959    0.81781675    2.18199464
 H   -3.99112210    0.69414457    1.24545193
 O   -1.99984556   -0.87374211    0.19384205
 O   -0.93000948    1.11896949    0.22493577
 O   -0.03786709    0.79038978   -0.85428615
 C    1.19756969    0.54521234   -0.48241830
 C    1.71941677    1.12940210    0.78902429
 H    1.56970850    2.20764963    0.75063690
 H    2.77593585    0.91504689    0.91133129
 H    1.15990830    0.75753641    1.64700928
 C    2.10586994    0.50364792   -1.67592415
 H    3.06932168    0.07629300   -1.41762689
 H    2.26007314    1.52529544   -2.01971294
 H    1.64906108   -0.06119612   -2.48386100
 H   -2.83926040   -1.33356425    0.09361565
 O    1.16157919   -1.23208270   -0.11844004
 O    0.48575432   -1.50120031    1.08357977
 H   -0.47498260   -1.39807436    0.85686942
 H    2.13334412   -1.54321185    0.10614137
 O    3.54678586   -1.98600423    0.48815589
 H    3.89575495   -2.73320039   -0.00832785
 H    3.64162215   -2.19510091    1.42368636
29
Nice; E=-45.340976 a.u.; E(rel.)=1.651254 kcal/mol
 C   -2.64848354    0.39396049   -1.28514719
 C   -2.18554618    0.53292227    0.15796841
 H   -2.58992131    1.35403922   -1.78787936
 H   -3.67441909    0.04084763   -1.29396637
 H   -2.02867628   -0.32751100   -1.81070120
 C   -3.11538538    1.40230048    0.99567713
 H   -2.68383256    1.56831892    1.98083354
 H   -4.07901899    0.91020783    1.09493893
 H   -3.25629809    2.36460591    0.51446298
 O   -2.04622087   -0.76137865    0.71493732
 O   -0.93006026    1.20653487    0.26634366
 O   -0.02688158    0.88655013   -0.79692601
 C    1.19899794    0.58877653   -0.43237516
 C    1.71816222    1.04378120    0.89117409
 H    1.56756796    2.12063403    0.95957935
 H    2.77443489    0.81802983    0.99310728
 H    1.16171483    0.58773029    1.70972657
 C    2.11988812    0.63744787   -1.61606210
 H    3.07029095    0.16353761   -1.39283627
 H    2.30166618    1.68358943   -1.85794368
 H    1.65717832    0.16622650   -2.47888289
 H   -2.35135684   -0.76424749    1.63129614
 O    1.12228508   -1.21775234   -0.24580417
 O    0.50194789   -1.59984615    0.95480483
 H   -0.47300342   -1.44167823    0.80259287
 H    2.09171707   -1.58654620   -0.11808559
 O    3.50633207   -2.11813661    0.10929929
 H    3.65637820   -2.45254267    1.00011083
 H    3.79146185   -2.80278084   -0.50446681
29
Nice; E=-45.338575 a.u.; E(rel.)=3.157678 kcal/mol
 C   -3.34387745    1.23864324   -0.48516748
 C   -2.09355476    0.47881345   -0.06509644
 H   -4.22582129    0.69835013   -0.15360246
 H   -3.37153511    1.35141611   -1.56690716
 H   -3.33936431    2.22707603   -0.03748391
 C   -2.02051969    0.29318474    1.44822256
 H   -1.11765126   -0.23654311    1.73967134
 H   -2.87828801   -0.28858529    1.77100427
 H   -2.04379420    1.26249443    1.93581885
 O   -1.98565533   -0.77080808   -0.66766707
 O   -0.99563327    1.33888920   -0.51265382
 O    0.09436891    0.62272151   -1.06360500
 C    1.20862212    0.59021525   -0.36389684
 C    1.47755309    1.61022842    0.69127472
 H    0.64927469    1.68328380    1.39159958
 H    1.57682240    2.57701441    0.19727861
 H    2.39761406    1.39026431    1.22171891
 C    2.34656407    0.15328271   -1.23875916
 H    2.57539601    0.96383127   -1.92847502
 H    2.06247894   -0.71637358   -1.82801192
 H    3.23113372   -0.06400531   -0.64819577
 H   -2.29373758   -0.73458085   -1.58376482
 O    0.95460144   -0.85923841    0.69614769
 O    0.44193386   -1.91578484   -0.07790639
 H   -0.49897384   -1.66135360   -0.27358440
 H    1.88920464   -1.24450447    0.98651882
 O    3.22387952   -1.85136727    1.35676906
 H    3.38825807   -2.68883134    0.90924859
 H    3.38240101   -1.99199261    2.29588605


